
!============================================================
! Methane-Air Combustion Skeletal Mechanism
! (4 elements, 16 species and 40 reactions)
!
! Ref:
! Yang, B. and Pope, S. B. (1998)
! Combustion and Flame, v. 112, pp. 16--32
!
! OBS:
! CHEMKIN-II format
!
! last update: May 26, 2009
!============================================================


ELEMENTS
    H   O   C   N
END


SPECIES
    CH4   O2   N2   OH   CO2   CO   H2O   H2   H   O
    HO2   H2O2   HCO   CH2O   CH3   CH3O
END


REACTIONS
    H    + O2     = OH   + O              1.59E+17   -0.927   16874.0
    O    + H2     = OH   + H              3.87E+04    2.700    6262.0
    OH   + H2     = H2O  + H              2.16E+08    1.510    3430.0
    OH   + OH     = O    + H2O            2.10E+08    1.400    -397.0
    H    + H  + M = H2   + M              6.40E+17   -1.000       0.0
    H    + OH + M = H2O  + M              8.40E+21   -2.000       0.0
    H    + O2 + M = HO2  + M              7.00E+17   -0.800       0.0
    HO2  + H      = OH   + OH             1.50E+14    0.000    1004.0
    HO2  + H      = H2   + O2             2.50E+13    0.000     693.0
    HO2  + O      = O2   + OH             2.00E+13    0.000       0.0 ! r10
    HO2  + OH     = H2O  + O2             6.02E+13    0.000       0.0
    H2O2 + M      = OH   + OH + M         1.00E+17    0.000   45411.0
    CO   + OH     = CO2  + H              1.51E+07    1.300    -758.0
    CO   + O + M  = CO2  + M              3.01E+14    0.000    3011.0
    HCO  + H      = H2   + CO             7.23E+13    0.000       0.0
    HCO  + O      = OH   + CO             3.00E+13    0.000       0.0
    HCO  + OH     = H2O  + CO             1.00E+14    0.000       0.0
    HCO  + O2     = HO2  + CO             4.20E+12    0.000       0.0
    HCO  + M      = H    + CO + M         1.86E+17   -1.000   16993.0
    CH2O + H      = HCO  + H2             1.26E+08    1.620    2175.0 ! r20
    CH2O + O      = HCO  + OH             3.50E+13    0.000    3513.0
    CH2O + OH     = HCO  + H2O            7.23E+05    2.460    -970.0
    CH2O + O2     = HCO  + HO2            1.00E+14    0.000   39914.0
    CH2O + CH3    = HCO  + CH4            8.91E-13    7.400    -956.0
    CH2O + M      = HCO  + H  + M         5.00E+16    0.000   76482.0
    CH3  + O      = CH2O + H              8.43E+13    0.000       0.0
    CH3  + OH     = CH2O + H2             8.00E+12    0.000       0.0
    CH3  + O2     = CH3O + O              4.30E+13    0.000   30808.0
    CH3  + O2     = CH2O + OH             5.20E+13    0.000   34895.0
    CH3  + HO2    = CH3O + OH             2.28E+13    0.000       0.0 ! r30
    CH3  + HCO    = CH4  + CO             3.20E+11    0.500       0.0
    CH4  + H      = CH3  + H2             7.80E+06    2.110    7744.0
    CH4  + O      = CH3  + OH             1.90E+09    1.440    8676.0
    CH4  + O2     = CH3  + HO2            5.60E+12    0.000   55999.0
    CH4  + OH     = CH3  + H2O            1.50E+06    2.130    2438.0
    CH4  + HO2    = CH3  + H2O2           4.60E+12    0.000   17997.0
    CH3O + H      = CH2O + H2             2.00E+13    0.000       0.0
    CH3O + OH     = CH2O + H2O            5.00E+12    0.000       0.0
    CH3O + O2     = CH2O + HO2            4.28E-13    7.600   -3528.0
    CH3O + M      = CH2O + H + M          1.00E+14    0.000   25096.0 ! r40
END
